data_Ti8_O16

_computing_structure_solution     'FOX http://objcryst.sourceforge.net'

_symmetry_space_group_name_H-M    'C 1 2/m 1'
_symmetry_space_group_name_Hall   '-C 2y'

_cell_length_a    12.21852
_cell_length_b     3.75275
_cell_length_c     6.47721
_cell_angle_alpha  90.000
_cell_angle_beta  107.228
_cell_angle_gamma  90.000
_cell_volume       283.67
loop_
    _atom_site_label
    _atom_site_type_symbol
    _atom_site_fract_x
    _atom_site_fract_y
    _atom_site_fract_z
    _atom_site_U_iso_or_equiv
    _atom_site_occupancy
    _atom_site_adp_type
    Ti0        Ti        0.102342  0.000000  0.705060  0.005254 1.0000 Uiso
    Ti1        Ti        0.196011  0.000000  0.286706  0.009720 1.0000 Uiso
    O2         O         0.062078  0.000000  0.365347  0.007362 1.0000 Uiso
    O3         O         0.122217  0.000000  0.013431  0.019149 1.0000 Uiso
    O4         O         0.128130  0.500000  0.715208  0.010292 1.0000 Uiso
    O5         O         0.250181  0.500000  0.366003  0.020846 1.0000 Uiso

#  Dynamical occupancy corrections found by ObjCryst++:
#  values below 1. (100%) indicate a correction,
#  which means either that the atom is on a special position,
#  or that it is overlapping with another identical atom.
#   Ti0              : 0.5000
#   Ti1              : 0.5000
#   O2               : 0.5000
#   O3               : 0.5000
#   O4               : 0.5000
#   O5               : 0.5000
#
